/*---------------------------------------------------------------------------*\
| =========                 |                                                 |
| \\      /  F ield         | OpenFOAM: The Open Source CFD Toolbox           |
|  \\    /   O peration     | Version:  1.4                                   |
|   \\  /    A nd           | Web:      http://www.openfoam.org               |
|    \\/     M anipulation  |                                                 |
\*---------------------------------------------------------------------------*/

// Field Dictionary

FoamFile
{
    version         2.0;
    format          ascii;
    class           volScalarField;
    object          omega;
}

// * * * * * * * * * * * * * * * * * * * * * * * * * * * * * * * * * * * * * //


dimensions      [0 0 0 0 0 0 0];

internalField   #codeStream
    {
	codeInclude
	#{
	    #include "fvCFD.H"
	#};

	codeOptions
	#{
	    -I$(LIB_SRC)/finiteVolume/lnInclude \
	    -I$(LIB_SRC)/meshTools/lnInclude
	#};

	codeLibs
	#{
	    -lmeshTools \
	    -lfiniteVolume
	 #};

	code
	#{
	    const IOdictionary& d = static_cast<const IOdictionary&>(dict);
	    const fvMesh& mesh = refCast<const fvMesh>(d.db());

	    scalarField omega(mesh.nCells(), 0.);

	    forAll(omega, i)
	    {
		const scalar xx = mesh.C()[i][0];
		const scalar yy = mesh.C()[i][1];
/*
		if(xx >= 0.3 && xx <= 0.8 && yy >= 0.3 && yy <= 0.8)
		{ omega[i] = 1; }
		else
		{ omega[i] = 0; }
*/
		if(::pow(xx - 0.2, 2) + ::pow(yy - 0.1, 2) <= 0.3*0.3)
		{ omega[i] = 1; }
		else
		{ omega[i] = 0; }

		omega[i] = 1;
	    }

	    omega.writeEntry("", os);
	#};

    };

boundaryField
{
    leftWall        
    {
        //type            zeroGradient;
	type		fixedValue;
	value		uniform 1;
    }

    rightWall       
    {
        //type            zeroGradient;
	type		fixedValue;
	value		uniform 1; 
    }

    topWall       
    {  
        type            fixedValue;
        value           uniform 1; 
     }

    bottomWall
    {
	type		fixedValue;
	value		uniform 1;
    }

    backAndFront           
    {
        type            empty;
    }
}
// ************************************************************************* //
