/*---------------------------------------------------------------------------*\
| =========                 |                                                 |
| \\      /  F ield         | OpenFOAM: The Open Source CFD Toolbox           |
|  \\    /   O peration     | Version:  1.5                                   |
|   \\  /    A nd           | Web:      http://www.openfoam.org               |
|    \\/     M anipulation  |                                                 |
\*---------------------------------------------------------------------------*/

FoamFile
{
    version         2.0;
    format          ascii;
    class           dictionary;
    object          physicalProperties;
}

// * * * * * * * * * * * * * * * * * * * * * * * * * * * * * * * * * * * * * //

k           k [1 1 -3 -1 0 0 0] 1;
c	    c [1 -1 -2 -1 0 0 0] 1;
beta2	beta2 [0 0 0 0 0 0 0] 0;
beta1	beta1 [-2 2 6 2 0 0 0] 1e-6;
beta3	beta3 [0 0 1 0 0 0 0] 1;
eps	eps [2 -2 -6 -2 0 0 0] 10; 

// ************************************************************************* //
